38
Polymer Generated by RDKit
C      4.1697    -0.3009     1.4834
F      5.2446    -1.0896     1.7519
F      3.9295     0.4183     2.6053
C      4.4583     0.6031     0.2956
F      4.6457    -0.1516    -0.8217
F      5.6453     1.2507     0.4982
C      3.3725     1.6403     0.0490
F      3.3116     2.4872     1.1231
F      3.7407     2.4348    -1.0017
C      1.9708     1.1050    -0.2092
F      1.5391     0.4389     0.8989
F      1.1170     2.1567    -0.3637
C      1.8628     0.1891    -1.4114
F      2.5949     0.6985    -2.4426
F      2.4528    -1.0007    -1.0950
C      0.4423    -0.0596    -1.9067
F      0.5234    -0.8967    -2.9835
F     -0.0897     1.0983    -2.3867
C     -0.4841    -0.6563    -0.8611
F      0.1059    -1.7359    -0.2858
F     -0.6684     0.2443     0.1383
C     -1.8332    -1.0371    -1.4476
F     -1.6403    -1.8713    -2.5151
F     -2.4507     0.0577    -1.9651
C     -2.7594    -1.7489    -0.4697
F     -3.9086    -2.0823    -1.1390
F     -2.1881    -2.9531    -0.1431
C     -3.1418    -1.0435     0.8235
F     -2.0403    -0.9025     1.6100
F     -3.9715    -1.8757     1.5241
C     -3.8250     0.2920     0.6115
F     -4.8681     0.1675    -0.2535
F     -2.9656     1.1690     0.0197
C     -4.3164     0.8956     1.9121
F     -3.2942     1.0657     2.7878
F     -5.2227     0.0938     2.5229
H      3.3251    -0.9698     1.3052
H     -4.7838     1.8693     1.7415