38
Polymer Generated by RDKit
C     -5.4790     1.3432     0.9254
Cl    -7.2517     1.4023     0.7764
C     -4.8385     1.1976    -0.4502
C     -3.3036     1.2256    -0.3942
Cl    -2.6872     1.3337    -2.0800
C     -2.7062    -0.0168     0.2923
C     -1.1706    -0.0022     0.4516
Cl    -0.7015     1.3403     1.5331
C     -0.6816    -1.3660     0.9804
C      0.8376    -1.6083     1.1074
Cl     1.4679    -0.9618     2.6557
C      1.6583    -1.0656    -0.0754
C      3.1282    -1.5223    -0.1055
Cl     3.1993    -3.3045    -0.3509
C      3.9425    -0.8595    -1.2296
C      4.0714     0.6670    -1.1297
Cl     5.0545     1.2517    -2.5133
C      4.7177     1.1425     0.1649
H     -5.1567     2.2663     1.4161
H     -5.2437     0.4987     1.5772
H     -5.1894     2.0214    -1.0863
H     -5.1792     0.2670    -0.9224
H     -2.9837     2.1444     0.1061
H     -3.1511    -0.1395     1.2870
H     -2.9980    -0.9074    -0.2808
H     -0.7003     0.1950    -0.5149
H     -1.0536    -2.1275     0.2799
H     -1.1699    -1.5907     1.9383
H      0.9721    -2.6913     1.1894
H      1.6253     0.0284    -0.0458
H      1.1753    -1.3658    -1.0148
H      3.6173    -1.3395     0.8546
H      3.4892    -1.1138    -2.1977
H      4.9505    -1.2977    -1.2372
H      3.0937     1.1431    -1.2460
H      4.0883     0.9100     1.0294
H      4.8614     2.2287     0.1564
H      5.6951     0.6731     0.3208